Version 4
SHEET 1 880 932
WIRE -480 -192 -624 -192
WIRE -624 -128 -624 -192
WIRE -464 -128 -496 -128
WIRE -656 -80 -832 -80
WIRE -624 -80 -656 -80
WIRE -480 -64 -480 -192
WIRE -480 -64 -496 -64
WIRE -832 -16 -832 -80
WIRE -656 16 -656 -80
WIRE -304 16 -656 16
WIRE -192 32 -240 32
WIRE -304 48 -320 48
WIRE -832 96 -832 64
WIRE -464 96 -464 -128
WIRE -304 96 -464 96
WIRE -192 112 -240 112
WIRE -320 128 -320 48
WIRE -320 128 -736 128
WIRE -304 128 -320 128
WIRE -736 160 -736 128
WIRE -752 384 -832 384
WIRE -832 512 -832 384
WIRE -832 512 -1040 512
WIRE -352 512 -832 512
WIRE -1040 544 -1040 512
WIRE -832 544 -832 512
WIRE -352 544 -352 512
WIRE -560 560 -592 560
WIRE -496 560 -528 560
WIRE -832 640 -832 624
WIRE -592 640 -592 560
WIRE -592 640 -832 640
WIRE -496 640 -496 560
WIRE -832 656 -832 640
WIRE -592 656 -592 640
WIRE -1152 704 -1248 704
WIRE -1040 704 -1040 624
WIRE -1040 704 -1088 704
WIRE -1008 704 -1040 704
WIRE -896 704 -944 704
WIRE -464 704 -528 704
WIRE -352 704 -352 624
WIRE -352 704 -400 704
WIRE -320 704 -352 704
WIRE -160 704 -256 704
WIRE -832 896 -832 752
WIRE -592 912 -592 752
FLAG -496 640 0
FLAG -752 464 0
FLAG -832 896 0
FLAG -592 912 0
FLAG -832 96 0
FLAG -736 240 0
FLAG -192 32 A
IOPIN -192 32 Out
FLAG -192 112 B
IOPIN -192 112 Out
FLAG -560 560 Y
IOPIN -560 560 Out
FLAG -1248 704 A
IOPIN -1248 704 In
FLAG -160 704 B
IOPIN -160 704 In
SYMBOL res -1056 528 R0
SYMATTR InstName R1
SYMATTR Value 980
SYMBOL res -368 528 R0
SYMATTR InstName R2
SYMATTR Value 17.6k
SYMBOL voltage -752 368 R0
WINDOW 123 0 0 Left 0
WINDOW 39 0 0 Left 0
SYMATTR InstName V1
SYMATTR Value 5
SYMBOL npn -896 656 R0
SYMATTR InstName Q2
SYMATTR Value FZT849
SYMBOL res -848 528 R0
SYMATTR InstName RC
SYMATTR Value 980
SYMBOL diode -1008 720 R270
WINDOW 0 32 32 VTop 2
WINDOW 3 0 32 VBottom 2
SYMATTR InstName D2
SYMATTR Value 1N4007
SYMBOL diode -1088 688 R90
WINDOW 0 0 32 VBottom 2
WINDOW 3 32 32 VTop 2
SYMATTR InstName D3
SYMATTR Value 1N4007
SYMBOL npn -528 656 M0
SYMATTR InstName Q3
SYMATTR Value FZT849
SYMBOL diode -320 720 R270
WINDOW 0 32 32 VTop 2
WINDOW 3 0 32 VBottom 2
SYMATTR InstName D4
SYMATTR Value 1N4007
SYMBOL diode -400 688 R90
WINDOW 0 0 32 VBottom 2
WINDOW 3 32 32 VTop 2
SYMATTR InstName D5
SYMATTR Value 1N4007
SYMBOL voltage -832 -32 R0
WINDOW 123 0 0 Left 0
WINDOW 39 0 0 Left 0
SYMATTR InstName V4
SYMATTR Value PULSE(0 5 0 1n9 1n9 1 2)
SYMBOL DigitalLogic\\DFF -560 -96 R0
SYMATTR InstName U1
SYMBOL DigitalLogic\\AND_2 -272 32 R0
SYMATTR InstName U4
SYMBOL DigitalLogic\\AND_2 -272 112 R0
SYMATTR InstName U5
SYMBOL voltage -736 144 R0
WINDOW 123 0 0 Left 0
WINDOW 39 0 0 Left 0
SYMATTR InstName V5
SYMATTR Value PULSE(0 5 0.1 1n9 1n9 0.8 1)
TEXT -528 -256 Left 2 !.tran 4
TEXT -896 136 Left 2 !;tran 16
