Version 4
SHEET 1 880 680
WIRE 64 -48 -32 -48
WIRE -32 -16 -32 -48
WIRE 64 0 64 -48
WIRE 256 0 208 0
WIRE 592 0 544 0
WIRE 256 32 256 0
WIRE 592 32 592 0
WIRE 208 80 208 0
WIRE 544 80 544 0
WIRE -32 112 -32 64
WIRE -32 128 -32 112
WIRE -96 176 -272 176
WIRE -272 208 -272 176
WIRE 208 208 208 160
WIRE 544 208 544 160
WIRE -32 320 -32 224
WIRE 208 320 208 288
WIRE 544 320 544 288
WIRE -272 336 -272 288
FLAG 256 32 0
FLAG 208 320 0
FLAG -32 320 0
FLAG 64 0 0
FLAG -272 336 0
FLAG -32 112 V2
FLAG 592 32 0
FLAG 544 320 0
SYMBOL bi2 208 208 R0
SYMATTR InstName B1
SYMATTR Value I=(Vcc-V(V2))/Rc
SYMBOL voltage 208 176 R180
WINDOW 0 24 96 Left 2
WINDOW 3 24 16 Left 2
SYMATTR InstName V1
SYMATTR Value 0
SYMBOL npn -96 128 R0
SYMATTR InstName Q1
SYMATTR Value FZT849
SYMBOL voltage -32 80 R180
WINDOW 0 24 96 Left 2
WINDOW 3 24 16 Left 2
SYMATTR InstName V2
SYMATTR Value 0
SYMBOL current -272 288 R180
WINDOW 0 24 80 Left 2
WINDOW 3 24 0 Left 2
SYMATTR InstName I1
SYMATTR Value 0
SYMBOL bi2 544 208 R0
SYMATTR InstName B2
SYMATTR Value I={P}/{V(V2)}
SYMBOL voltage 544 176 R180
WINDOW 0 24 96 Left 2
WINDOW 3 24 16 Left 2
SYMATTR InstName V3
SYMATTR Value 0
TEXT 152 344 Left 2 !;tran 5
TEXT -1088 -104 Left 2 !.param Vcc 5
TEXT -1088 -40 Left 2 !.param Rc 0.714
TEXT -1104 184 Left 2 !.dc V2 0 {Vcc} 0.01 I1 0 6m 0.6m
TEXT 488 344 Left 2 !;tran 5
TEXT -1088 24 Left 2 !.param P 0.625
